

-- *------------------------------------------*
-- *                                          *
-- * base grid model with input parameters    *
-- *                                          *
-- *------------------------------------------*
RUNSPEC

TITLE
 3 WELL MODEL

DIMENS
-- NDIVIX NDIVIY NDIVIZ
   100    100      1 /

-- Gradient option
-- AJGRADNT

-- Gradients readeable
-- UNCODHMD

--BLACKOIL
OIL
WATER

METRIC

TABDIMS
-- NTSFUN  NTPVT  NSSFUN  NPPVT  NTFIP  NRPVT  NTENDP
     1       1      35      30     5     30      1 /

EQLDIMS
-- NTEQUL  NDRXVD  NDPRVD
   1       5       100 /

WELLDIMS
-- NWMAXZ NCWMAX NGMAXZ MWGMAX 
    10     1     2      20 /

VFPPDIMS
-- MXMFLO MXMTHP MXMWFR MXMGFR MXMALQ NMMVFT
   10     10     10     10     1      1 /

VFPIDIMS
-- MXSFLO MXSTHP NMSVFT
   10     10     1 /

AQUDIMS
-- MXNAQN  MXNAQC NIFTBL NRIFTB NANAQU NCAMAX
   0       0      1      36     2       200/

START
 01 JAN 2029 /

NSTACK
 25 /

NOECHO

GRID
INIT



PERMX
296.360377305
294.195111572
292.107240374
290.104455205
288.189775298
286.358646475
284.608873600
282.947510602
281.364530954
279.863205191
278.437892926
277.084320531
275.805721041
274.587495148
273.429495896
272.328815655
271.284913862
270.276381853
269.315384082
268.387538717
267.485627039
266.611182712
265.759081178
264.919972597
264.090070244
263.266721854
262.440505376
261.616900780
260.786314519
259.946383113
259.094374583
258.232474881
257.355762805
256.463822417
255.556567103
254.638309731
253.699124675
252.751024707
251.793055533
250.824181251
249.852608121
248.875086354
247.898111392
246.926330805
245.959537124
245.006860670
244.072554755
243.158607121
242.269915695
241.413146466
240.596569318
239.815718545
239.085171095
238.400202013
237.773503099
237.207058492
236.701972163
236.269958868
235.908727370
235.621831128
235.417245491
235.297247420
235.261309723
235.312475308
235.456383868
235.699318028
236.034873119
236.470574676
237.004230827
237.637540692
238.374590209
239.212524590
240.160207516
241.208894319
242.361142684
243.622784656
244.986323018
246.454484050
248.029600713
249.707987730
251.492160163
253.379972875
255.371045977
257.460589891
259.654719627
261.951868074
264.347754950
266.844168966
269.435800342
272.124684586
274.915463730
277.800670549
280.776952597
283.852524759
287.016397114
290.272319452
293.621397992
297.057510956
300.578823456
304.186106847
301.239413175
298.872748317
296.588056214
294.392038691
292.287699139
290.269919554
288.335930267
286.492622453
284.729869532
283.050071796
281.447585210
279.918114007
278.464364342
277.071396958
275.739168243
274.464857890
273.247179118
272.065089609
270.930924984
269.830258680
268.755403856
267.708799355
266.684979072
265.674989295
264.675301751
263.683638270
262.690161894
261.701403292
260.707626491
259.707278723
258.697601294
257.681553422
256.654022438
255.615894864
254.566110924
253.510680087
252.439272788
251.364319289
250.285361191
249.201668443
248.121507380
247.041952268
245.970238674
244.910136932
243.862612217
242.836421874
241.835950648
240.863243944
239.923481742
239.023262286
238.170510233
237.361228872
236.609311553
235.910704311
235.277313817
234.711341604
234.213881864
233.796309720
233.456089288
233.196804386
233.026356704
232.946566964
232.956837451
233.060402069
233.262450890
233.569068271
233.973672023
234.483719528
235.097044071
235.814785453
236.641287821
237.573868967
238.620553790
239.773281166
241.033799933
242.408160322
243.888889306
245.478732912
247.179584609
248.988136557
250.906584188
252.932650565
255.066319311
257.302445203
259.647546870
262.099179051
264.653490103
267.312691235
270.070641689
272.929657236
275.894344710
278.956894533
282.114164532
285.374118216
288.725648906
292.171955554
295.714366088
299.346473184
303.065875602
306.873477693
305.994763769
303.449613454
300.991054637
298.624632830
296.353206914
294.171098041
292.074789743
290.070865971
288.149181357
286.311032287
284.550759289
282.863981566
281.252771371
279.701902208
278.211269328
276.778137313
275.400432221
274.057466283
272.761693962
271.498654452
270.260103316
269.049448604
267.860831051
266.685759744
265.520891092
264.364398538
263.206041718
262.053399340
260.896671112
259.735061797
258.565933200
257.392967488
256.210972677
255.022143526
253.824569409
252.625869454
251.415542851
250.206353552
248.998445814
247.791473851
246.593777949
245.402872882
244.226694585
243.068278792
241.929761268
240.819608951
239.742279777
238.700051414
237.698332126
236.743723200
235.843791305
234.995114313
234.210844657
233.487676689
232.836722183
232.260381710
231.759828901
231.346031776
231.016209114
230.774031029
230.627295609
230.577320245
230.623510051
230.769219767
231.019190630
231.379274978
231.842766679
232.416938958
233.099688662
233.891592816
234.797154614
235.813890776
236.948924469
238.194856289
239.552646142
241.028464022
242.614869494
244.314550351
246.128946962
248.055092282
250.094835861
252.245727755
254.508042445
256.876295394
259.357301100
261.947701743
264.644109779
267.449010166
270.355512755
273.366055065
276.485225934
279.704838146
283.021912866
286.444073631
289.960124403
293.572673613
297.283174531
301.084940290
304.974970258
308.954289414
310.594472285
307.900970631
305.298429876
302.791087232
300.381522705
298.063497888
295.832589581
293.694932491
291.640437718
289.669077598
287.775173678
285.954196458
284.207481026
282.519583551
280.890176840
279.316604637
277.795998388
276.308001100
274.865148236
273.452964853
272.062577968
270.698429924
269.354230988
268.022031120
266.698603055
265.382663674
264.063602120
262.750038552
261.432208225
260.110021553
258.781119891
257.449868740
256.111119181
254.768381079
253.419029955
252.072210769
250.717485301
249.367876627
248.024238904
246.686693713
245.363673805
244.053243956
242.764001208
241.498397969
240.259727083
239.056250523
237.892445128
236.770980831
235.697444279
234.678508811
233.721368167
232.823268953
231.996573974
231.238789907
230.560229652
229.963464404
229.449832858
229.029835449
228.700434993
228.465440966
228.332519215
228.302440845
228.374670120
228.552617517
228.840576482
229.244135670
229.756507742
230.384672569
231.126619477
231.982367328
232.956467301
234.046657165
235.259104256
236.587038638
238.030651720
239.596136165
241.276081113
243.073038567
244.987981870
247.018238231
249.165288286
251.426460643
253.802247096
256.286831236
258.887215127
261.599097818
264.419578373
267.351264599
270.386599610
273.527980711
276.779993374
280.134042033
283.587255033
287.146830561
290.801512338
294.553284795
298.403625728
302.345585331
306.375535760
310.494609890
315.016069007
312.210722497
309.500121073
306.887064279
304.373719111
301.953290935
299.620309650
297.380326925
295.223380898
293.147920675
291.148255832
289.219648559
287.362601534
285.561540108
283.815764553
282.122690033
280.478680217
278.863680495
277.290283673
275.744032629
274.215379645
272.709866952
271.220755375
269.740725721
268.266609841
266.797774686
265.323294097
263.852823206
262.376753178
260.895656277
259.407620767
257.917671637
256.420832752
254.921942383
253.417809395
251.919028570
250.415456400
248.920311039
247.435262665
245.960988324
244.506035061
243.069117961
241.659458212
240.279080817
238.932409845
237.627588817
236.369062750
235.160034998
234.006224870
232.914441110
231.891486313
230.935356592
230.057582760
229.256532046
228.541718320
227.915843158
227.380490018
226.945635627
226.607966590
226.371477219
226.243672633
226.224737814
226.314231676
226.515560710
226.832569472
227.270550329
227.822664710
228.495496572
229.287144194
230.197077849
231.229775662
232.383211309
233.662548345
235.061603198
236.579816073
238.223307299
239.984678661
241.866269936
243.868569028
245.989142080
248.229077999
250.585428077
253.058827440
255.643124084
258.345399220
261.160381709
264.085665430
267.123831098
270.266734419
273.516572016
276.877935743
280.341797028
283.905328927
287.575223268
291.340195208
295.201578700
299.160776845
303.210604709
307.346787408
311.570555506
319.214621524
316.340056837
313.563103148
310.885019051
308.307427805
305.822984217
303.425054605
301.118482516
298.893499698
296.746856402
294.672866920
292.666530240
290.727430081
288.839963191
287.002918936
285.213774520
283.468184998
281.746367757
280.060959957
278.397567766
276.745947307
275.112805100
273.490951782
271.873800744
270.258197466
268.644278631
267.020880146
265.398686218
263.768382745
262.131169140
260.485755073
258.837817134
257.182687001
255.526552652
253.865810333
252.212438558
250.556816941
248.912304781
247.281492119
245.665704546
244.073627792
242.504716893
240.968785038
239.467585676
238.006638346
236.594054108
235.234199549
233.930932241
232.690064541
231.518595264
230.422916667
229.401840366
228.466028685
227.614744169
226.856702106
226.194686009
225.630596015
225.173832904
224.820779492
224.575651352
224.445765633
224.430683813
224.530074809
224.747288356
225.085715775
225.550320167
226.134229140
226.843535108
227.676450635
228.631910340
229.714190981
230.921509885
232.257985315
233.717967149
235.300157300
237.010513006
238.841618792
240.795528039
242.872220598
245.069439400
247.387858058
249.824189920
252.379140933
255.046208743
257.832448739
260.731595315
263.741732043
266.865269506
270.093548570
273.428412788
276.874463637
280.422223471
284.068844710
287.820436450
291.665724323
295.605369802
299.640609560
303.764063124
307.970797571
312.262135492
323.160925480
320.264670464
317.467647116
314.769500032
312.171188397
309.664825529
307.242526675
304.908314525
302.652676371
300.470517355
298.356183482
296.304363114
294.313645167
292.368513614
290.467125379
288.607009405
286.783201216
284.976163285
283.198572130
281.436157344
279.677984487
277.931986283
276.190542642
274.447910419
272.700918278
270.950604183
269.185663964
267.417807177
265.638168170
263.848552588
262.048467473
260.244251063
258.431680730
256.618323178
254.800320463
252.990978644
251.181423666
249.385110181
247.605648105
245.845108712
244.112341124
242.407617470
240.741316350
239.115072449
237.535453249
236.010623177
234.544826361
233.142673049
231.810035513
230.554146887
229.380968073
228.290176824
227.291535792
226.385223469
225.579156117
224.876143314
224.278464740
223.794896110
223.421481762
223.162684468
223.025606350
223.009150342
223.113090089
223.340671360
223.694823988
224.180147154
224.789737680
225.529107870
226.396577256
227.390556469
228.514989566
229.768333827
231.153624858
232.665682915
234.302476744
236.069713022
237.959914877
239.974776593
242.113739278
244.374653674
246.757751763
249.259340625
251.880126029
254.613228147
257.465573499
260.429879559
263.504699607
266.692139501
269.983087452
273.378891336
276.884159112
280.488954471
284.190343335
287.993783320
291.888053157
295.873127131
299.949995104
304.111131137
308.350945095
312.670851527
326.809535307
323.943120944
321.176032392
318.506258509
315.933985943
313.450798443
311.047502050
308.727197909
306.480685779
304.300908422
302.182277974
300.119130960
298.108998070
296.136574025
294.199279268
292.294682140
290.417312943
288.547857840
286.699031405
284.856759856
283.009450975
281.166319800
279.319353536
277.463770600
275.596367903
273.719225119
271.821013377
269.914467069
267.991333830
266.054018979
264.103001863
262.145309456
260.177302574
258.207964487
256.233343663
254.268026007
252.304100964
250.355080114
248.425688951
246.518844036
244.643583202
242.801059278
241.002196877
239.248658799
237.548003675
235.908533679
234.334329881
232.830831531
231.403945926
230.061172373
228.808020594
227.645069736
226.581157347
225.617386226
224.760872291
224.014389299
223.380651450
222.867762266
222.471389671
222.196258055
222.049228870
222.028513498
222.133966280
222.368688607
222.735136222
223.237506915
223.868859124
224.634040801
225.531460891
226.559015097
227.720181043
229.013643264
230.441318781
231.998426455
233.682198017
235.498006557
237.438255354
239.504209492
241.694731291
244.007705091
246.442890066
248.996113437
251.668011487
254.451287739
257.352640068
260.363747234
263.483598869
266.713872802
270.045054565
273.477867647
277.016915715
280.651802036
284.379442548
288.204582929
292.116104189
296.113284058
300.196800476
304.359043820
308.593779649
312.902522684
330.101984505
327.319838007
324.635374610
322.044914263
319.547776441
317.135029014
314.796141485
312.533202470
310.337373797
308.199549815
306.114247835
304.075417025
302.079478118
300.111463919
298.167972607
296.246596198
294.341494379
292.433564157
290.535554439
288.633674425
286.715731858
284.792270794
282.854941448
280.900044183
278.924344821
276.931109310
274.909113977
272.872117704
270.812652753
268.733731016
266.636972147
264.530134235
262.410294068
260.287895323
258.159051137
256.039586497
253.922761523
251.822110599
249.743562133
247.690979050
245.673610281
243.693537636
241.762218470
239.881482684
238.059811906
236.305729017
234.623113519
233.018288724
231.497179232
230.067569582
228.734500637
227.499473411
226.370380682
225.349247344
224.442385671
223.652468939
222.982693099
222.440445040
222.020976706
221.729277716
221.571945267
221.546468842
221.652743884
221.893693004
222.271282146
222.789268044
223.440652975
224.229541712
225.154405824
226.212631659
227.407097598
228.736692222
230.202180362
231.799099770
233.523932436
235.381639431
237.364433152
239.473081702
241.705820097
244.060488155
246.536335694
249.128633244
251.837879419
254.656312718
257.590306245
260.630479938
263.776214590
267.028649905
270.377907637
273.823973473
277.371431047
281.009429409
284.734676912
288.551156878
292.447908919
296.423512423
300.478286477
304.604611522
308.795635503
313.052991595
332.979280075
330.336513819
327.787942238
325.328233047
322.955758453
320.661087045
318.432352196
316.270549935
314.167245829
312.111231157
310.097168068
308.118588710
306.170764595
304.239191245
302.319578029
300.409521251
298.502957285
296.580992332
294.656398019
292.715762826
290.746376832
288.760144442
286.748450074
284.708793619
282.637924791
280.540438280
278.405355154
276.247456334
274.060230333
271.847313349
269.611621067
267.361695196
265.095451896
262.824839837
260.546190798
258.276527889
256.010477802
253.761563074
251.536992117
249.341671276
247.185078623
245.070255681
243.009184157
241.003987990
239.063993413
237.198023097
235.409717849
233.706317649
232.093754566
230.580103338
229.169921324
227.865636211
226.674183093
225.598495939
224.644079420
223.813438212
223.110290624
222.541264049
222.101155747
221.795213074
221.629747001
221.601497000
221.710346546
221.959010207
222.348944872
222.883423207
223.555365831
224.368058136
225.319999748
226.408067066
227.634408668
228.998083916
230.498670701
232.131939651
233.893600318
235.788127359
237.807458873
239.951800487
242.218702025
244.605877933
247.112025610
249.731780134
252.465435816
255.304710324
258.255560616
261.307529080
264.460334000
267.714481858
271.059760658
274.495323739
278.025715709
281.639647146
285.333572954
289.110677425
292.960224870
296.880105085
300.870255330
304.923133072
309.031315083
313.196584036
335.363681275
332.915171782
330.555509604
328.277749477
326.079252537
323.950103645
321.877128406
319.860158326
317.891194313
315.956900961
314.052122850
312.169950314
310.304478224
308.441781966
306.576635022
304.706613741
302.825585219
300.914875281
298.987254708
297.029794913
295.029371830
292.999262212
290.930668742
288.822399670
286.671216423
284.483176437
282.247689884
279.980551831
277.676371628
275.339436614
272.974094557
270.589730614
268.185208017
265.774022363
263.352869645
260.939926381
258.531365710
256.140660835
253.776363546
251.444514807
249.154833066
246.911330885
244.726511091
242.602905099
240.550594038
238.578776071
236.690817881
234.894888006
233.196924526
231.605283134
230.124028776
228.756506569
227.508688900
226.384396962
225.388324677
224.522738877
223.791916182
223.201684662
222.746350492
222.431402700
222.262845790
222.236644603
222.352607845
222.613217035
223.019398970
223.573895310
224.269514081
225.108647610
226.089781557
227.209275461
228.468420939
229.866404710
231.401581232
233.069861725
234.866149710
236.794363114
238.846069885
241.020849632
243.315498930
245.727523749
248.255017424
250.891900552
253.638196079
256.485038243
259.437880385
262.485170479
265.626902152
268.862867913
272.182543818
275.584174438
279.072244251
282.635049670
286.268758576
289.975733699
293.745538590
297.575393356
301.464852529
305.406551739
309.392560502
313.424855354
337.195948160
334.993929727
332.873641887
330.826586284
328.849064473
326.930693216
325.057042004
323.226714172
321.432165551
319.657943383
317.899104080
316.148277328
314.398367334
312.636131679
310.855381405
309.053644214
307.224871090
305.350631389
303.443655349
301.491605784
299.481064613
297.426670612
295.319538030
293.159877332
290.944500850
288.681047699
286.359459287
283.996529005
281.588138850
279.139258130
276.655778378
274.147989248
271.615788741
269.074252916
266.520576503
263.974035398
261.432509734
258.909381002
256.414589671
253.955393246
251.541753408
249.178644693
246.879090931
244.646129084
242.490494683
240.421832029
238.443199656
236.563686905
234.789243875
233.128484084
231.584977967
230.162963846
228.867456090
227.703132536
226.673874276
225.781641342
225.031299732
224.427840652
223.965047770
223.648626388
223.484256194
223.467105541
223.596838455
223.875680757
224.304006723
224.883975445
225.608248141
226.478250423
227.492406650
228.646544743
229.940976975
231.374964554
232.945598356
234.648833456
236.478725118
238.438567247
240.519451497
242.720270959
245.036993047
247.466831790
250.007218024
252.651282726
255.398709957
258.239988234
261.179986341
264.206046106
267.318371390
270.515977480
273.788050243
277.131870202
280.551845127
284.035894411
287.579886018
291.185357330
294.842260290
298.547182409
302.299322663
306.091613941
309.915707406
313.773834721
338.395057561
336.486999440
334.652013951
332.880124315
331.166540312
329.500424910
327.866164893
326.261078627
324.678084960
323.099654793
321.521076629
319.934505242
318.331654701
316.700047211
315.032526100
313.326536438
311.576257349
309.763540178
307.901014429
305.977042196
303.978044726
301.919983440
299.793982291
297.601724711
295.340120710
293.018484959
290.627423500
288.184698290
285.687592827
283.141788506
280.554798450
277.937872725
275.292004257
272.633866264
269.961272990
267.294527519
264.633354133
261.990989458
259.378787274
256.805288246
254.280689073
251.810895274
249.409452644
247.079982881
244.833766239
242.680955335
240.624268918
238.673690266
236.835194686
235.117616845
233.524038492
232.059553521
230.728233053
229.535573047
228.484643443
227.577028369
226.818212025
226.212313996
225.752570422
225.444869968
225.294550165
225.295965020
225.448560355
225.754284513
226.212936658
226.826036278
227.586062766
228.493401126
229.546361738
230.740218390
232.074187315
233.547541758
235.156065146
236.895655279
238.759468535
240.750110518
242.858081423
245.081529500
247.415510642
249.856863507
252.402290262
255.044064483
257.781462976
260.604267732
263.516689069
266.504958354
269.569423366
272.708277060
275.910439398
279.172194619
282.497862784
285.875037496
289.299296735
292.771370312
296.281700522
299.826300645
303.404067830
307.008370236
310.630554758
314.273186426
338.897953319
337.325047183
335.815302838
334.357353124
332.945301077
331.567872447
330.208364171
328.862763550
327.524450589
326.173895274
324.806627821
323.414322360
321.987519897
320.514568273
318.987359619
317.403221063
315.756689357
314.029951244
312.235455743
310.362367218
308.397088681
306.356833696
304.232835196
302.028291991
299.740262582
297.379799489
294.938290217
292.434420067
289.866971263
287.242362335
284.569766703
281.861438502
279.119494870
276.362199257
273.588089020
270.818401327
268.054811366
265.310347881
262.597777770
259.926973272
257.308345269
254.748677608
252.262038614
249.852694740
247.532352017
245.311725534
243.193164864
241.187503771
239.300762150
237.541947350
235.913667668
234.421821089
233.069563044
231.863160822
230.804880250
229.895861439
229.142233140
228.547212489
228.103469590
227.817036968
227.692893384
227.724564077
227.911201729
228.254453906
228.753521962
229.409222989
230.213819206
231.166579550
232.265641918
233.505695281
234.884748727
236.402015620
238.051922232
239.830204559
241.729061786
243.750349025
245.883850664
248.126915799
250.473600508
252.920285810
255.462872576
258.092719352
260.808625729
263.599612724
266.469168018
269.402418151
272.399790427
275.458630139
278.567625977
281.722057124
284.926156705
288.167260531
291.440693864
294.746422453
298.075497412
301.423440755
304.788931555
308.165931622
311.545627393
314.931012763
338.650950282
337.446076918
336.293584517
335.180812051
334.100759141
333.041732049
331.986047646
330.928327544
329.862400964
328.766846901
327.637433121
326.465357558
325.240022802
323.950636898
322.588180802
321.149826145
319.630575494
318.013018221
316.309322840
314.509549518
312.600226958
310.599718488
308.499460786
306.304175192
304.011120993
301.633110966
299.162408637
296.618557856
294.001898990
291.319602161
288.582495925
285.803865056
282.986944126
280.151551863
277.297033579
274.445441118
271.600475382
268.774882768
265.982816941
263.235507992
260.543548037
257.914525370
255.363031229
252.894014565
250.519483366
248.250758112
246.089794375
244.048217416
242.132117637
240.350615389
238.705870625
237.204521788
235.848848636
234.645835101
233.596957323
232.702843820
231.970292808
231.401590536
230.988831819
230.738146497
230.654137566
230.729490593
230.962991428
231.355959991
231.906978171
232.616090382
233.475308442
234.482707579
235.636190047
236.929820219
238.360296710
239.926691842
241.622020114
243.441748023
245.377055440
247.428986306
249.586479609
251.846035132
254.200619496
256.646077479
259.177430109
261.785080952
264.467280813
267.212246954
270.022692956
272.882661704
275.792601639
278.749007304
281.740387529
284.761034072
287.815109851
290.889780969
293.980188727
297.085607490
300.197832426
303.312006813
306.426704508
309.536660542
312.633075587
315.719483521
337.625338945
336.811785220
336.039358001
335.294208230
334.568256276
333.849414469
333.119146700
332.370689734
331.598307368
330.778833165
329.908259406
328.977325728
327.974352890
326.889419091
325.712659322
324.441055518
323.070159409
321.583043822
319.991481361
318.286507279
316.454918125
314.516093066
312.461758786
310.298127993
308.022710234
305.650056326
303.173370314
300.612970454
297.970768484
295.254686038
292.477153880
289.652490281
286.785002252
283.895994399
280.985683899
278.076788460
275.175072681
272.292914633
269.445799460
266.646316505
263.905192174
261.230726009
258.638028991
256.132748024
253.727065608
251.432936688
249.251903752
247.196310829
245.272348539
243.489180896
241.848555733
240.357774464
239.018295178
237.837754820
236.816862912
235.955669255
235.261663905
234.736177613
234.370728519
234.171491585
234.142675246
234.276117686
234.570168714
235.025786635
235.640914560
236.414746999
237.339015035
238.410520986
239.626863679
240.981435735
242.469531658
244.089993775
245.834366236
247.697738035
249.670207239
251.751949546
253.930927626
256.202749014
258.559205617
260.995533155
263.505795138
266.079422847
268.714049224
271.397063326
274.130371439
276.896976177
279.697300220
282.527010497
285.374512699
288.233160089
291.107083155
293.983390931
296.857146299
299.727037516
302.585758306
305.428219976
308.253032749
311.055905696
313.828261648
316.574299294
335.815491570
335.405802181
335.025936176
334.660970228
334.301791031
333.935952257
333.544206112
333.118406422
332.653234890
332.123960273
331.526777998
330.852003434
330.086954114
329.222565422
328.248214309
327.160665877
325.956075238
324.618090890
323.157963622
321.567764109
319.834690705
317.978975904
315.992710021
313.883526106
311.649227177
309.306031587
306.848115406
304.296467733
301.654534727
298.930972515
296.139713121
293.296084584
290.405383353
287.490292684
284.551946225
281.613549302
278.682929270
275.771999916
272.897496593
270.073340637
267.310333769
264.617377115
262.010094869
259.494824073
257.083793902
254.789607864
252.613382972
250.568097415
248.660074517
246.898444990
245.284589332
243.826383373
242.524529800
241.387245513
240.414505887
239.605714644
238.969072693
238.504933428
238.204244483
238.073167710
238.115495509
238.322212861
238.691169715
239.222919919
239.914750170
240.764920071
241.764852872
242.909997927
244.197577247
245.620257037
247.171844877
248.850856605
250.647304353
252.555791721
254.565275757
256.675009277
258.871849534
261.150477766
263.501434053
265.919279942
268.397046067
270.923203342
273.494699695
276.098093910
278.734474475
281.385872302
284.052651663
286.729703225
289.405436725
292.072346570
294.734594019
297.379368997
300.001797580
302.600122956
305.168107686
307.700612199
310.196451642
312.652527954
315.060723987
317.426036230
333.252777673
333.248636198
333.263336172
333.281002349
333.291556722
333.282242700
333.233257540
333.135096833
332.982848055
332.750430738
332.434216661
332.024150544
331.506649005
330.873472663
330.113351578
329.222817063
328.198653190
327.025185343
325.713013139
324.255282071
322.639713853
320.887209282
318.990279671
316.957869299
314.788109097
312.498767058
310.084987118
307.568308785
304.953624343
302.250289299
299.473590275
296.639813465
293.755125620
290.843443968
287.906843941
284.968812476
282.039200216
279.129354478
276.257152813
273.437794044
270.682084692
267.999405388
265.405882610
262.908511805
260.519445597
258.251931774
256.106657516
254.097141042
252.229870576
250.513860571
248.950176992
247.547169655
246.304863006
245.231970954
244.327776792
243.590969142
243.030474160
242.645647991
242.426881032
242.380257808
242.509127854
242.803619854
243.261027040
243.881444677
244.661489008
245.598392160
246.683247700
247.910072689
249.275634917
250.771814335
252.390864259
254.130872891
255.980259744
257.933038200
259.976976575
262.110355333
264.318806906
266.596066474
268.931361243
271.318527256
273.749496668
276.211829211
278.701728858
281.204952522
283.721789124
286.233400923
288.740080670
291.236026255
293.709796280
296.153141813
298.570345630
300.948845266
303.284009954
305.573814100
307.813273773
309.997415847
312.125450911
314.195704069
316.200784461
318.146621261
330.013207253
330.405209280
330.805711319
331.198016273
331.571173062
331.912179565
332.200844868
332.426357728
332.584207779
332.647208500
332.611882065
332.467875002
332.200828448
331.803281967
331.263450182
330.577627380
329.743224754
328.745351329
327.593832276
326.282904165
324.800917329
323.169243138
321.380853526
319.445862479
317.362753741
315.150683392
312.805725929
310.349840165
307.789227333
305.133890737
302.400287325
299.605582121
296.756664386
293.878505831
290.974132998
288.067086503
285.169164114
282.291041561
279.451610786
276.667265097
273.948736200
271.305755624
268.754935361
266.303875730
263.964535889
261.750783947
259.662882277
257.714786120
255.913178470
254.266869902
252.776669434
251.451289810
250.290162803
249.302405352
248.486659497
247.840827510
247.374568401
247.086222526
246.965641792
247.018763472
247.248462121
247.644007785
248.202090104
248.922278577
249.800509547
250.832890014
252.010166821
253.324851029
254.773175924
256.346172780
258.034493200
259.835694867
261.736549342
263.730383026
265.803744854
267.953902004
270.165159320
272.430303694
274.737213350
277.078963477
279.446339165
281.826081762
284.213603218
286.593921204
288.966577904
291.312006455
293.630437392
295.915492116
298.156061590
300.343303116
302.481739189
304.559247099
306.571651419
308.516866347
310.391352323
312.190548110
313.914263723
315.562479058
317.128812187
318.620249456
326.200096759
326.969255182
327.737462814
328.487337734
329.207168186
329.883785458
330.496787526
331.034132336
331.491716937
331.841516075
332.080176772
332.197137519
332.177408208
332.014251601
331.695511366
331.217256404
330.577496521
329.762230359
328.780396926
327.627315156
326.292048101
324.796233373
323.133322637
321.314430535
319.338406626
317.225593948
314.972928917
312.602650439
310.122087749